 PDE 2003 12 26 01 56 52.40   29.0000   58.3100  10.0 6.0 6.8 SOUTHERN IRAN
event name:          122603B
time shift:           5.7300
half duration:        4.8000
latitude:            29.1000
longitude:           58.2400
depth:               12.8361
Mrr:            1.412220E+25
Mtt:           -1.357770E+25
Mpp:           -5.444900E+23
Mrt:           -4.331480E+25
Mrp:           -1.828920E+25
Mtp:            6.446100E+25
